# AS264437 - TELEMAC TELECOMUNICACOES LTDA
2804:1e94::/33
2804:1e94::/36
2804:1e94::/34
2804:1e94::/32
2804:1e94:1000::/36
2804:1e94:2000::/36
2804:1e94:3000::/36
2804:1e94:4000::/34
2804:1e94:4000::/36
2804:1e94:5000::/36
2804:1e94:6000::/36
2804:1e94:7000::/36
2804:1e94:8000::/34
2804:1e94:8000::/36
2804:1e94:8000::/33
2804:1e94:9000::/36
2804:1e94:a000::/36
2804:1e94:b000::/36
2804:1e94:c000::/34
2804:1e94:c000::/36
2804:1e94:d000::/36
2804:1e94:e000::/36
2804:1e94:f000::/36
131.221.168.0/23
131.221.168.0/22
131.221.170.0/23
